resultados/_temp_alt4_1p20/LineSummary.csv
line,maxCurrentA,normAmps,maxLoadingPct,meanLoadingPct,overloadHours
rbt_1607347,91.22467850410821,124.95,73.00894638183931,25.18508550332031,0
sbt_7584,91.2246888150698,163.8,55.692728214328326,19.211701413026585,0
sbt_22840,91.2246840909338,163.8,55.692725330240414,19.211701373754405,0
rbt_630758,30.510634218501544,76.65,39.8051327051553,17.701722080667675,0
rbt_637576,24.42577438087186,61.95,39.42820723304578,14.649818293075446,0
rbt_632607,49.187797308909744,124.95,39.365984240824126,18.55196621619668,0
rbt_1130761,30.52959420591482,90.3,33.80907442515484,15.921319425744395,0
rbt_606147,25.121920639730437,76.65,32.77484754041805,12.419799320535482,0
rbt_605836,25.896687428294083,90.3,28.67850213543088,13.522932773349567,0
rbt_637360,17.6841786046237,61.95,28.545889595841324,13.412018453799867,0
rbt_637918,17.32887912489098,61.95,27.97236339772555,11.289693976421722,0
rbt_626476,15.275543525128572,61.95,24.65785879762481,11.604421406714799,0
rbt_1607350,21.529492087671667,90.3,23.842183928761536,8.710597571003598,0
smt_29422,35.532549732292,163.8,21.692643304207568,20.16674552831115,0
smt_17184,35.44235442607153,163.8,21.63757901469568,20.107268802343587,0
smt_19119,35.4409498298287,163.8,21.63672150783193,20.106127103914528,0
rbt_606126,13.389814023019323,61.95,21.613904799062666,7.784696006911624,0
rbt_1633671,12.952971361566444,61.95,20.908751188969237,10.393084631551096,0
rbt_3405844,18.34957404367318,90.3,20.32068000406775,7.054759064691314,0
rbt_1627323,15.049296686305283,76.65,19.633785631187582,9.240615463045627,0
smt_24512,31.639413276282678,163.8,19.315881121051696,18.973835245744382,0
smt_19115,31.639359981125892,163.8,19.31584858432594,18.973803245192194,0
smt_29473,31.637874238996485,163.8,19.31494153784889,18.972911145359873,0
smt_29474,31.635984435056226,163.8,19.313787811389634,18.971776431636535,0
smt_6092,31.634097120237254,163.8,19.312635604540446,18.970643213826317,0
smt_19063,31.63241261017829,163.8,19.311607210121053,18.969631769070443,0
smt_6227,31.6304699106183,163.8,19.31042119085366,18.96846529873567,0
smt_6144,31.628511705135615,163.8,19.309225705211,18.96728951950226,0
smt_6176,31.62648691561173,163.8,19.30798956997053,18.966073762256467,0
smt_6719,31.624578790334876,163.8,19.3068246583241,18.96492805582992,0
smt_6062,31.622537717291515,163.8,19.30557858198505,18.963702524388708,0
smt_6066,31.620728925427102,163.8,19.30447431344756,18.962616463897003,0
smt_19014,31.619092230630553,163.8,19.303475110275063,18.96163373746654,0
smt_19011,31.617135173663456,163.8,19.302280325801867,18.960458656141636,0
smt_29475,31.61515970829546,163.8,19.30107430298868,18.95927252316631,0
smt_6594,31.613437874154442,163.8,19.300023122194407,18.958238679674263,0
smt_29476,31.611442080074266,163.8,19.298804688690026,18.957040343339834,0
smt_19061,31.609464551022516,163.8,19.29759740599665,18.955852975256413,0
smt_6474,31.607846405957513,163.8,19.296609527446588,18.95488139319806,0
smt_37840,31.60619140018615,163.8,19.29559914541279,18.953887679848712,0
sbt_34378,24.688975503686937,128.1,19.273204920910956,9.459552632894887,0
sbt_34379,24.61188746164425,128.1,19.213026902142275,9.32373274581677,0
smt_26478,31.449021402167258,163.8,19.199646765669875,18.873524050304095,0
smt_30311,31.44728983494983,163.8,19.198589642826512,18.872478085427485,0
smt_14452,31.445190470583743,163.8,19.197307979599355,18.871209952735093,0
rbt_606143,14.714451714127378,76.65,19.196936352416667,6.845051199802491,0
smt_22508,31.44348988578264,163.8,19.196269771540074,18.870182707117863,0
smt_14113,31.441465405734586,163.8,19.195033825234788,18.8689598135407,0
smt_14544,31.439171763603525,163.8,19.193633555313504,18.867574334904806,0
smt_22453,31.437083612827976,163.8,19.19235873799022,18.86631298658403,0
smt_14754,31.436309087241774,163.8,19.191885889646993,18.86762646124739,0
smt_26474,31.43499519757891,163.8,19.191083759205682,18.86505148122896,0
smt_14780,31.434256907384135,163.8,19.190633032591045,18.8663866647803,0
smt_21229,31.43325835936503,163.8,19.19002341841577,18.86400234777211,0
smt_26472,31.432196702955018,163.8,19.189375276529315,18.86514202306123,0
smt_14729,31.43129112520045,163.8,19.188822420757294,18.862814046412527,0
smt_15243,31.4301343421648,163.8,19.188116204007812,18.863896081334286,0
smt_15568,31.42855195445736,163.8,19.187150155346373,18.86261170660359,0
smt_15581,31.427084968591664,163.8,19.18625455957977,18.861725271811224,0
smt_23196,31.42557241884998,163.8,19.185331147039058,18.860811306145226,0
smt_13371,31.42440957515431,163.8,19.184621230252937,18.93788974064073,0
smt_15622,31.424176348775188,163.8,19.184478845406097,18.8599677252597,0
smt_856,31.422875190461045,163.8,19.183684487460955,18.859181496267762,0
smt_21221,31.422638423806113,163.8,19.183539941273573,18.936812496653072,0
smt_13441,31.420885819801004,163.8,19.18246997545849,18.93574653403404,0
smt_16038,31.420536614818197,163.8,19.182256785603293,18.85776840730257,0
smt_857,31.419688344554874,163.8,19.181738916089667,18.935018210250238,0
smt_21217,31.418454697981335,163.8,19.18098577410338,18.93426788674518,0
smt_26396,31.417048322635896,163.8,19.180127181096392,18.93341250793412,0
smt_39969,31.41697590983322,163.8,19.180082973036154,18.93336846518448,0
smt_23147,31.416678815225055,163.8,19.17990159659649,18.85554732032263,0
smt_14288,31.41602174035356,163.8,19.1795004519863,18.923775639176608,0
smt_13847,31.41580956021535,163.8,19.179370915882384,18.932659073359808,0
smt_20815,31.41428381444415,163.8,19.1784394471576,18.922718636617606,0
smt_14513,31.414194894562947,163.8,19.17838516151584,18.931677009253423,0
smt_13787,31.412858101242694,163.8,19.177569048377713,18.930863951665934,0
smt_21165,31.410913894997606,163.8,19.176382109278144,18.929681457071467,0
smt_21157,31.41002651052601,163.8,19.17584036051649,18.92012935694174,0
smt_26394,31.408950542453926,163.8,19.175183481351603,18.92848731817186,0
smt_15145,31.408277535926363,163.8,19.174772610455655,18.91906563683755,0
smt_14041,31.40714216668356,163.8,19.17407946683978,18.92738743899687,0
smt_13717,31.40683169497487,163.8,19.17388992367208,18.850010853104784,0
smt_15288,31.40610158025529,163.8,19.173444188190043,18.91774222931299,0
smt_26393,31.405665567085922,163.8,19.173178001883954,18.926489351130982,0
smt_20807,31.405477422633357,163.8,19.173063139580805,18.849192349876933,0
smt_26388,31.4042836934596,163.8,19.17233436719145,18.916636598623608,0
smt_13284,31.404269405854166,163.8,19.17232564459961,18.92564018736521,0
smt_23095,31.40377846173115,163.8,19.172025922912788,18.848165523336146,0
smt_20808,31.402973265892314,163.8,19.171534350361608,18.847678875708294,0
smt_21164,31.40247945518881,163.8,19.171232878625645,18.924551516142884,0
smt_20997,31.402478652266336,163.8,19.171232388440984,18.915538781266637,0
smt_26469,31.40137780072821,163.8,19.17056031790489,18.846714603041935,0
smt_15035,31.400769762152738,163.8,19.170189109983355,18.914499443164807,0
smt_13919,31.400585803805047,163.8,19.170076803299782,18.923399773446153,0
smt_13955,31.399855680219673,163.8,19.16963106240517,18.84579466022436,0
smt_20813,31.398599880570423,163.8,19.168864395952635,18.922191910605992,0
smt_20816,31.39819088306766,163.8,19.168614702727506,18.912930983435565,0
smt_14437,31.39811584389253,163.8,19.16856889126528,18.844743135643625,0
smt_20814,31.397272790673185,163.8,19.168054206760186,18.921384758651193,0
smt_13280,31.396400386990432,163.8,19.16752160377926,18.843706347488936,0
smt_14255,31.39634535459395,163.8,19.16748800646761,18.91180854431148,0
smt_21162,31.395418684787284,163.8,19.16692227398491,18.920257069847622,0
smt_15189,31.39499943527759,163.8,19.16666632190329,18.910989964849175,0
smt_21226,31.394700840710737,163.8,19.166484029737934,18.842679177273343,0
smt_14349,31.393542235350978,163.8,19.16577670045847,18.91010370565981,0
smt_13930,31.392917556869204,163.8,19.165395333863984,18.841601399852223,0
smt_14630,31.391737436443563,163.8,19.164674869623664,18.909006039724826,0
smt_21225,31.390589726564144,163.8,19.1639741920416,18.8401945136852,0
smt_20817,31.39034747239195,163.8,19.16382629572158,18.908160673849206,0
smt_14608,31.38888029935921,163.8,19.162930585689384,18.907268350483637,0
smt_13546,31.388248417028997,163.8,19.162544821141022,18.83877948454536,0
smt_20862,31.386524655478635,163.8,19.16149246366217,18.905835666896483,0
smt_14261,31.38535637098793,163.8,19.16077922526736,18.905125126141908,0
smt_14274,31.383336747159014,163.8,19.15954624368682,18.903896808711583,0
smt_26385,31.381723764541565,163.8,19.15856151681414,18.902915807450697,0
smt_14298,31.38017696722413,163.8,19.157617196107527,18.901975060015822,0
smt_14732,31.3785969429736,163.8,19.156652590337973,18.901014104744643,0
smt_21153,31.3769721883675,163.8,19.155660676659032,18.900025945467824,0
smt_36207,31.375371312921875,163.8,19.154683341222146,18.899052309814827,0
smt_13752,31.373725011946405,163.8,19.153678273471552,18.82959857359063,0
smt_14823,31.373688428369462,163.8,19.153655939175497,18.82957646270805,0
smt_14872,31.373465983370664,163.8,19.153520136367927,18.897893508909892,0
smt_23041,31.371915095148697,163.8,19.152573318161597,18.82850462033253,0
smt_15028,31.370707903690157,163.8,19.151836327039167,18.883931649647028,0
smt_14797,31.37016355877425,163.8,19.151504004135685,18.827445954485544,0
smt_14970,31.36934193224154,163.8,19.151002400635857,18.876466586628847,0
smt_26430,31.367912476471126,163.8,19.15012971701534,18.82677520596253,0
smt_13747,31.367746910911638,163.8,19.150028639140192,18.87549625321591,0
smt_20865,31.366205582067415,163.8,19.149087656939813,18.874558584468264,0
smt_26429,31.366169534506756,163.8,19.149065649882026,18.82572169872459,0
smt_14193,31.36453916510462,163.8,19.148070308366677,18.87354481914474,0
smt_20810,31.364416365311943,163.8,19.14799533901828,18.824662011698127,0
smt_14225,31.363010963903335,163.8,19.147137340600327,18.87261513816908,0
smt_26425,31.362650714232668,163.8,19.14691740795645,18.82359478210849,0
smt_21108,31.36125934920533,163.8,19.14606797875783,18.871549544563628,0
smt_14845,31.360556629069105,163.8,19.145638967685656,18.82232903652406,0
smt_20866,31.35961440932218,163.8,19.14506374195493,18.87054884722389,0
smt_21220,31.358452058981342,163.8,19.144354126362234,18.821056956302527,0
smt_36206,31.358115399786964,163.8,19.144148595718534,18.869636926954445,0
smt_23225,31.356421898722825,163.8,19.143114712284994,18.819829854834698,0
smt_13702,31.356409132140453,163.8,19.14310691827866,18.868598922087852,0
smt_20867,31.354972784111748,163.8,19.14223002693025,18.867725122766988,0
smt_13866,31.353518876318756,163.8,19.141342415335014,18.86684064149188,0
smt_14674,31.351876948915127,163.8,19.1403400176527,18.817484395430874,0
smt_21107,31.351769418130022,163.8,19.140274370042746,18.86577636341428,0
smt_15154,31.349865718864457,163.8,19.13911216047891,18.816268741771065,0
smt_26355,31.349602224955916,163.8,19.138951297286884,18.864457958309174,0
smt_27620,31.34853412965252,163.8,19.138299224452087,18.86241493812896,0
smt_20812,31.348188583892743,163.8,19.13808826855479,18.815255028152595,0
smt_20868,31.34798981809162,163.8,19.137966921911854,18.863477056304585,0
smt_20869,31.346599316083264,163.8,19.13711801958685,18.86123787167112,0
smt_23009,31.346491174673126,163.8,19.137051999189943,18.86256536237937,0
smt_26427,31.34641213058861,163.8,19.137003742728087,18.81418128534507,0
smt_13891,31.34500370081598,163.8,19.13614389549205,18.860267161066776,0
smt_23277,31.34464155528293,163.8,19.135922805423032,18.81311109737894,0
smt_21104,31.34333219223615,163.8,19.135123438483607,18.859250280448794,0
smt_14301,31.34296337405654,163.8,19.13489827475979,18.81209675694973,0
smt_21222,31.34118116176636,163.8,19.133810233068598,18.811019539144485,0
smt_13932,31.341079461311843,163.8,19.13374814487902,18.857879807751658,0
smt_14054,31.33904307173286,163.8,19.13250492779784,18.856640949531556,0
smt_26351,31.337014818150198,163.8,19.131266677747373,18.855407041727553,0
smt_14864,31.335007275398944,163.8,19.130041071672125,18.854185734420597,0
smt_21052,31.333346132865422,163.8,19.129026943141284,18.85317516356924,0
smt_26348,31.331706309090475,163.8,19.128025829725562,18.852177562667578,0
smt_14369,31.33020937337037,163.8,19.12711194955456,18.851266889393404,0
smt_20870,31.328566626745403,163.8,19.12610905173712,18.85026751145006,0
smt_21053,31.32715606114256,163.8,19.12524790057543,18.849409383047036,0
smt_26347,31.325391946945246,163.8,19.12417090778098,18.848336171313466,0
smt_14536,31.32369491945828,163.8,19.12313487146415,18.847303772789765,0
smt_14549,31.321645786162463,163.8,19.121883874336056,18.846057168987933,0
smt_21056,31.32014254709271,163.8,19.120966145966246,18.845142664102188,0
smt_15181,31.318792804195663,163.8,19.120142127103577,18.844321539966227,0
smt_21055,31.317445226592444,163.8,19.119319430154118,18.843501733455213,0
smt_20871,31.316011713326795,163.8,19.118444269430277,18.851843012133706,0
smt_14721,31.31466846091439,163.8,19.117624213012448,18.851025766633295,0
smt_14748,31.313026486254948,163.8,19.11662178648043,18.850026776798185,0
smt_26346,31.311410581088897,163.8,19.115635275390044,18.849043648462338,0
smt_14761,31.30962454958939,163.8,19.114544902069223,18.84795701476523,0
smt_14786,31.307854070679998,163.8,19.11346402361416,18.846879844221352,0
smt_21100,31.306111392940217,163.8,19.112400117790116,18.845819588791308,0
smt_21054,31.30438060672769,163.8,19.111343471750725,18.844766569011068,0
smt_21101,31.188002656005455,163.8,19.040294661785993,18.826681458056086,0
smt_14960,31.18558982280699,163.8,19.03882162564529,18.825211756767597,0
smt_21103,31.1841276294186,163.8,19.03792895568901,18.824321108175365,0
smt_14563,31.182374159434897,163.8,19.036858461193464,18.82325303815243,0
smt_26349,31.180576463888777,163.8,19.03576096696506,18.822158030011938,0
smt_26350,31.179135863265323,163.8,19.03488147940496,18.821280535094854,0
smt_17100,31.177223147175123,163.8,19.033713765064174,18.820115466844353,0
smt_14503,31.175881581623894,163.8,19.032894738476124,18.814792329418534,0
smt_15080,31.17487120092985,163.8,19.032277900445575,18.818682856713824,0
smt_26354,31.174095684827435,163.8,19.031804447391597,18.8137045195943,0
smt_27622,31.172895272289995,163.8,19.031071594804637,18.813021603661074,0
smt_20875,31.1724939240758,163.8,19.030826571474847,18.81723481809194,0
smt_21109,31.171503996253854,163.8,19.030222219935197,18.812174165079785,0
smt_14517,31.17123276244122,163.8,19.030056631526996,18.816466624077623,0
smt_21110,31.17017193256273,163.8,19.02940899423854,18.811362793439333,0
smt_14778,31.168947499694106,163.8,19.02866147722473,18.81507463398043,0
smt_14066,31.168426722824428,163.8,19.028343542627855,18.810299771173522,0
smt_14909,31.166924138181887,163.8,19.027426213786256,18.8138421727921,0
smt_21111,31.16639444539915,163.8,19.027102836019015,18.809061893797953,0
smt_14146,31.16443125042453,163.8,19.02590430428848,18.807866095467233,0
smt_26356,31.16254206402854,163.8,19.02475095484038,18.806715376703053,0
smt_14607,31.160632882579893,163.8,19.02358539840042,18.8055524791044,0
smt_15188,31.15896602645,163.8,19.022567781715505,18.80453718404395,0
smt_14159,31.157571514155567,163.8,19.021716431108405,18.803687775869445,0
smt_14181,31.156152017386837,163.8,19.020849827464488,18.802823149648997,0
smt_14620,31.154420439763477,163.8,19.0197926982683,18.801768432819387,0
smt_20876,31.15244097906766,163.8,19.018584236305042,18.800562728864172,0
smt_26384,31.15038700281905,163.8,19.01733028255131,18.799311637289502,0
smt_14740,31.14792642701492,163.8,19.015828099520707,18.797812883476055,0
rbt_637397,11.779412362599613,61.95,19.01438638030607,8.940007685907984,0
smt_26391,31.003170292725404,163.8,18.92745439116325,18.76405458004231,0
smt_21161,31.001482595609474,163.8,18.926424051043632,18.76302620890004,0
smt_36560,31.000207790174933,163.8,18.925645781547576,18.748255794217247,0
smt_14907,30.999568781876867,163.8,18.925255666591493,18.761860057946937,0
smt_14427,30.998385020854304,163.8,18.92453297976453,18.747145203845484,0
smt_26390,30.997855076479556,163.8,18.924209448400216,18.76081584036801,0
smt_13545,30.99725101451628,163.8,18.923840668202857,18.742659175526178,0
smt_36562,30.99702623220963,163.8,18.923703438467417,18.746317309679217,0
smt_36563,30.996983041847262,163.8,18.923677070724825,18.74629099593392,0
smt_36561,30.996954644648966,163.8,18.923659734217928,18.746273693522166,0
smt_14065,30.996051750268244,163.8,18.92310851664728,18.759717014418737,0
smt_21154,30.995602077250187,163.8,18.922833990995226,18.7416545042631,0
smt_20926,30.995361004441587,163.8,18.922686815898405,18.745302709934734,0
smt_27624,30.994127666111375,163.8,18.921933862094857,18.758544607392107,0
smt_16842,30.993604620196738,163.8,18.92161454224465,18.740437486437852,0
smt_14247,30.99333153276314,163.8,18.92144782219972,18.744066181048424,0
smt_23173,30.992451913857412,163.8,18.920910814320763,18.75752351766674,0
smt_23120,30.991167094899883,163.8,18.92012643156281,18.74934094800928,0
smt_14040,30.991136291477925,163.8,18.9201076260549,18.74272865227695,0
smt_16817,30.99107922707907,163.8,18.92007278820456,18.738898807342057,0
smt_14587,30.989398993108857,163.8,18.91904700433996,18.73787507029471,0
smt_15289,30.98930617147991,163.8,18.91899033667882,18.748207085795745,0
smt_14163,30.98796465081276,163.8,18.918171337492527,18.747389696645282,0
smt_14588,30.987276754676085,163.8,18.917751376481124,18.736582028702,0
smt_20927,30.986555766037014,163.8,18.917311212476807,18.746531262964968,0
smt_26392,30.985229837385386,163.8,18.91650173222551,18.745723374967046,0
smt_16855,30.985082651513103,163.8,18.916411875160623,18.735245202510917,0
smt_14735,30.983525825230934,163.8,18.915461431764914,18.744685121330402,0
smt_26387,30.98298778784518,163.8,18.91513295961244,18.73396884230557,0
smt_27623,30.98148247374509,163.8,18.91421396443534,18.73305168399966,0
smt_26389,30.980069015616372,163.8,18.91335104738484,18.732190492287717,0
smt_3613,30.91587673527501,163.8,18.874161621047016,18.716910902239825,0
smt_14937,30.91338326844647,163.8,18.87263935802593,18.715397640867895,0
smt_15269,30.911163177368714,163.8,18.87128399106759,18.714050289312798,0
rbt_635862,10.357986143625503,61.95,16.719913064770786,5.780783484409343,0
rbt_3435739,12.602238960902959,76.65,16.441277183174112,8.354016326604812,0
rbt_605816,9.766387785220276,61.95,15.764952034253877,6.094458262354003,0
sbt_24791,25.121942010868004,163.8,15.33696093459585,5.811829757907422,0
sbt_3174,25.121933105210427,163.8,15.336955497686464,5.811831418842263,0
smt_37838,31.692200080850288,216.3,14.651964900994122,14.409057489591001,0
smt_37842,31.691068895451274,216.3,14.651441930398185,14.408541397732401,0
smt_37843,31.69036505700619,216.3,14.651116531209517,14.408220278769791,0
smt_38001,31.689003764776356,216.3,14.65048717742781,14.407599203343464,0
smt_38002,31.68894905721595,216.3,14.650461884981947,14.407574244279035,0
smt_38000,31.68892216060338,216.3,14.650449450117142,14.40756197281065,0
smt_37845,31.6876729391751,216.3,14.649871909003744,14.406992029295141,0
smt_37846,31.686198709595683,216.3,14.649190341930504,14.406319428858888,0
smt_37831,31.686131248537222,216.3,14.64915915327657,14.394064259355176,0
smt_37858,31.685432865401708,216.3,14.648836276191265,14.393745585303071,0
smt_37847,31.684816468614,216.3,14.648551303104021,14.40568879764872,0
smt_37859,31.683965756168718,216.3,14.648158001002642,14.393076139913973,0
smt_37848,31.68380431855293,216.3,14.648083365026782,14.405227016405796,0
smt_37860,31.682905244075098,216.3,14.647667704149375,14.3925922260629,0
smt_37849,31.682364997663615,216.3,14.647417936968846,14.40457034407661,0
smt_37861,31.681482595265525,216.3,14.647009983941528,14.391943069012767,0
smt_37850,31.680921123724666,216.3,14.64675040394113,14.403911595016629,0
smt_37862,31.68013418991534,216.3,14.64638658803298,14.391327789837481,0
smt_37851,31.67952788272509,216.3,14.646106279577017,14.403275947100637,0
smt_37863,31.67902089710366,216.3,14.645871889553238,14.390819793194417,0
smt_37864,31.678347119851576,216.3,14.645560388280895,14.390512348123941,0
smt_37852,31.678129755088502,216.3,14.645459896018725,14.402638070245082,0
smt_37923,31.677672803858687,216.3,14.645248637937442,14.39020465731288,0
smt_37853,31.676786365172727,216.3,14.644838818850081,14.402025167226332,0
smt_37924,31.676250048817607,216.3,14.644590868616552,14.389555453706956,0
smt_37854,31.675360917539606,216.3,14.644179804687752,14.401374827017753,0
smt_37925,31.67480755116216,216.3,14.643923971873399,14.388897242098151,0
smt_37855,31.673973003203496,216.3,14.643538142951224,14.400741611350186,0
smt_37856,31.672465691667938,216.3,14.64284128139988,14.40005392302502,0
smt_37932,31.655294014257358,216.3,14.634902456891982,14.378047137980362,0
smt_37933,31.653933082956254,216.3,14.63427326997515,14.377425948799376,0
smt_37934,31.65257340590698,216.3,14.633644662925093,14.376805332634563,0
smt_37935,31.65122215197381,216.3,14.633019950057239,14.37618856172688,0
smt_37936,31.64998635092994,216.3,14.632448613467378,14.3756244889705,0
smt_37937,31.648620889022023,216.3,14.631817331956551,14.375001233963076,0
smt_37938,31.64725685191144,216.3,14.631186709159241,14.374378629820946,0
smt_37939,31.645869824156417,216.3,14.630545457307637,14.373745532360736,0
smt_37940,31.644499585809424,216.3,14.629911967549432,14.373120098798054,0
smt_37941,31.64315843600314,216.3,14.629291926030117,14.372507943016524,0
smt_37942,31.641845698838196,216.3,14.628685020267312,14.371908756403313,0
smt_37943,31.64052141517484,216.3,14.628072776317541,14.371304300036009,0
smt_37944,31.63918660710871,216.3,14.627455666716923,14.370695040460811,0
smt_37945,31.638052235435097,216.3,14.626931223039804,14.37017726841077,0
smt_37873,31.637083833418785,216.3,14.62648351059583,14.369735251752871,0
smt_37874,31.63572602865941,216.3,14.625855769144433,14.369115496917575,0
smt_37875,31.634264232196944,216.3,14.6251799501604,14.368448276792678,0
smt_37876,31.632760102112346,216.3,14.624484559460168,14.367761734660846,0
smt_37877,31.631262843213534,216.3,14.623792345452397,14.367078329419224,0
smt_37878,31.62977331171539,216.3,14.623103703983073,14.366398451919515,0
smt_37879,31.62833731606757,216.3,14.622439813253612,14.36574301077536,0
smt_37880,31.62681162784865,216.3,14.621734455778384,14.365046631301064,0
smt_37881,31.625428713790416,216.3,14.621095105774579,14.364415419695957,0
smt_37882,31.62395849435409,216.3,14.620415392674104,14.363744359415904,0
smt_37883,31.62251071484399,216.3,14.619746054019412,14.363083542122995,0
smt_37884,31.62101424810082,216.3,14.61905420624171,14.362400502896506,0
smt_37885,31.619562280806488,216.3,14.618382931487048,14.36173777537306,0
smt_37886,31.61811600238498,216.3,14.617714286816911,14.361077645052683,0
smt_37887,31.61668516342839,216.3,14.617052780133328,14.360424562407312,0
smt_37888,31.615201004787554,216.3,14.616366622647966,14.35974714353609,0
smt_37889,31.614242397957895,216.3,14.61592343872302,14.359309604134495,0
smt_37890,31.613241481445574,216.3,14.615460694149593,14.358852753485346,0
smt_37891,31.611250932300546,216.3,14.614540421775562,14.357944203411236,0
smt_37892,31.60977878337685,216.3,14.613859816632846,14.357272268429936,0
smt_37893,31.60839514654271,216.3,14.61322013247467,14.356640733740377,0
smt_37894,31.606961423764357,216.3,14.612557292540155,14.355986338812457,0
smt_37895,31.605588679282842,216.3,14.611922644143707,14.35535977681741,0
smt_37841,31.604856329955197,216.3,14.611584063779565,14.35282245759569,0
smt_37896,31.604138113411928,216.3,14.611252017296314,14.354697695391584,0
smt_37837,31.604007964727778,216.3,14.611191846845944,14.352436711780818,0
smt_37897,31.60266482648286,216.3,14.610570886029986,14.354025243975414,0
smt_37903,31.602071791233342,216.3,14.610296713468951,14.345407515288016,0
smt_37898,31.60129207290143,216.3,14.609936233426456,14.353398679485787,0
smt_37904,31.60100889656913,216.3,14.60980531510362,14.344922680007373,0
smt_37905,31.599606156370655,216.3,14.60915679906179,14.344282825948893,0
smt_37906,31.59820843730576,216.3,14.608510604394711,14.343645262744062,0
smt_40683,31.596707999121154,216.3,14.607816920536825,14.342960845315309,0
smt_37908,31.59526087433078,216.3,14.607147884572713,14.342300747086938,0
smt_37909,31.59370500766606,216.3,14.60642857497275,14.341591047439797,0
smt_37910,31.59221804565016,216.3,14.605741121428645,14.340912778875035,0
smt_37911,31.590702164368146,216.3,14.605040297904829,14.340221319634855,0
smt_40685,31.590613859400683,216.3,14.604999472677152,14.340181040105092,0
smt_37912,31.589207849219267,216.3,14.604349444854028,14.339539698353292,0
smt_37913,31.587718601206213,216.3,14.603660934445776,14.338860388825081,0
smt_37914,31.586181915488687,216.3,14.602950492597635,14.338159441569411,0
smt_37915,31.584722568316877,216.3,14.60227580597174,14.337493772270166,0
smt_37916,31.583608518223105,216.3,14.6017607573847,14.336985607798196,0
smt_37917,31.582109688304378,216.3,14.601067817061663,14.336301929798308,0
smt_37918,31.580591178968856,216.3,14.600365778533913,14.335609275793493,0
smt_37919,31.579118315231245,216.3,14.59968484291782,14.334937443235567,0
smt_37920,31.577579643842338,216.3,14.598973483052397,14.33423559373235,0
smt_37993,31.57601322009819,216.3,14.598249292694494,14.33352108586829,0
smt_37987,31.575368189670463,216.3,14.597951081678437,14.333226862219696,0
smt_37986,31.574078569578806,216.3,14.597354863420623,14.332638616209701,0
smt_37948,31.54870602335108,216.3,14.585624606264947,14.326693140489033,0
smt_37947,31.546962609457168,216.3,14.584818589670443,14.325897073476229,0
smt_37985,31.545267241468437,216.3,14.584034785699693,14.325122945920763,0
smt_37984,31.54341516771036,216.3,14.583178533384356,14.324277265578367,0
smt_37983,31.541533880670247,216.3,14.582308775159614,14.323418247306039,0
smt_37963,31.539623027189535,216.3,14.581425347752905,14.322545729887691,0
smt_37959,31.515087809718562,216.3,14.570082205140341,14.319953730045272,0
smt_37958,31.513180898809534,216.3,14.569200600466727,14.319081905336036,0
smt_37957,31.511238715567472,216.3,14.5683026886581,14.318193955877755,0
smt_37956,31.50933463798404,216.3,14.567422393889986,14.31732342944671,0
smt_37955,31.507421408522987,216.3,14.566537868018022,14.316448720335488,0
smt_37954,31.505805196902298,216.3,14.565790659686684,14.315709805917628,0
smt_37962,31.503840546719935,216.3,14.564882360943104,14.308663448009414,0
smt_37953,31.502196000829,216.3,14.56412205308784,14.314986286166382,0
smt_37960,31.502123817381023,216.3,14.564088681174766,14.307879000933198,0
smt_37952,31.50034686745066,216.3,14.563267160171362,14.31414082025647,0
smt_37951,31.498429086179016,216.3,14.562380529902457,14.313263968444359,0
smt_37981,31.496872449623204,216.3,14.561660864365788,14.31255224101527,0
smt_37980,31.485904016537074,216.3,14.55658992905089,14.308913042115618,0
smt_37979,31.484705070277904,216.3,14.55603563119644,14.308364743922269,0
smt_37978,31.483073714237563,216.3,14.555281421284125,14.30761869845636,0
smt_37977,31.48123177810228,216.3,14.55442985580318,14.306776352731248,0
smt_37976,31.479574106044474,216.3,14.553663479447282,14.306018275032471,0
smt_37975,31.47783401340143,216.3,14.552858998336305,14.305222506432395,0
smt_37990,31.47607136872928,216.3,14.552044090952046,14.304416425795026,0
smt_37974,31.474444176770824,216.3,14.55129180618161,14.303672290618723,0
smt_37991,31.472686517777944,216.3,14.550479203780833,14.302868492488953,0
smt_37973,31.471656384381575,216.3,14.55000295163272,14.30239740101572,0
smt_37989,31.465884750216574,216.3,14.547334604815799,14.297953737841361,0
smt_37969,31.464024068145257,216.3,14.546474372697759,14.299434484173917,0
smt_37968,31.462688585434893,216.3,14.545856951195049,14.298823572806109,0
smt_37972,31.46157611283176,216.3,14.54534263191482,14.295983172433411,0
smt_37967,31.4609542488464,216.3,14.545055131228107,14.298030208409758,0
smt_37971,31.459829239324026,216.3,14.544535015868712,14.295184237975283,0
smt_37966,31.459189231936794,216.3,14.544239127109012,14.297222810718557,0
smt_37970,31.45860651083506,216.3,14.543969722993555,14.294625022594152,0
smt_37996,31.457469879677067,216.3,14.543444234709693,14.296436303362663,0
smt_37995,31.456064937944472,216.3,14.542794700852738,14.295793621401373,0
smt_37994,31.456036258618536,216.3,14.542781441802374,14.29578050279437,0
smt_37965,31.4560226384963,216.3,14.542775144935877,14.295774272162978,0
smt_37964,31.449900564079687,216.3,14.53994478228372,14.292973776157888,0
rbt_609688,10.714943445877529,76.65,13.979052114647786,5.21001867840396,0
rbt_1638954,8.581425868992026,61.95,13.852180579486726,6.511727667127855,0
rbt_1607265,12.074725216015942,90.3,13.371788722055308,6.295879134710353,0
smt_34714,35.4846150515344,286.65,12.37907380133766,11.509507091692493,0
smt_34721,35.48458842164848,286.65,12.379064511302454,11.509494709732905,0
smt_34712,35.48457175016183,286.65,12.379058695329437,11.509486957401341,0
smt_34720,35.48408300915838,286.65,12.378888194368876,11.509259715958356,0
smt_34711,35.483401824256,286.65,12.378650557912438,11.508943001724885,0
smt_34719,35.48266336776738,286.65,12.378392941834077,11.508599665362558,0
smt_34710,35.48201563080105,286.65,12.378166973940713,11.508298513150187,0
smt_34718,35.4813657290513,286.65,12.377940250846434,11.507996359418234,0
smt_34709,35.48074428182991,286.65,12.377723454327546,11.507707439388128,0
smt_34708,35.48010874171711,286.65,12.37750174139791,11.507411971938112,0
smt_34707,35.47896772414982,286.65,12.377103688871385,11.506881516057872,0
smt_34706,35.478083414571174,286.65,12.376795190849878,11.50647041332911,0
smt_34717,35.47713414741543,286.65,12.376464031890958,11.506029122937933,0
smt_34705,35.4763278092445,286.65,12.376182734779174,11.505654284783482,0
smt_34716,35.47553132012518,286.65,12.37590487358283,11.505284032597876,0
smt_34704,35.47486281600847,286.65,12.375671660913474,11.50497328054206,0
smt_34703,35.474197848173354,286.65,12.375439681902446,11.504664177426184,0
smt_34702,35.47313376172881,286.65,12.375068467374433,11.504169559139791,0
smt_34715,35.47224848151711,286.65,12.374759630740316,11.503758065122236,0
smt_34701,35.471602109476585,286.65,12.374534139011544,11.503457625615809,0
smt_34700,35.470949447192055,286.65,12.374306452884024,11.50315426730095,0
smt_34713,35.47018614243689,286.65,12.374040168301724,11.502799488458843,0
rbt_606139,9.210134168004263,76.65,12.015830617096231,4.365058580785418,0
sbt_9361,25.89668750094302,216.3,11.972578594980591,5.645496177080311,0
rbt_606121,6.970742448246083,61.95,11.252207341801586,5.287222892924356,0
rbt_623004,6.943593815940491,61.95,11.20838388368118,4.505738703924442,0
smt_24122,36.48723756347557,327.6,11.13774040399132,10.220473698867808,0
smt_18806,36.487217836415404,327.6,11.137734382300184,10.220465391725341,0
smt_10381,36.48707790904703,327.6,11.137691669428275,10.220406446960693,0
smt_18545,36.48664795122945,327.6,11.137560424673214,10.220225328392585,0
smt_23134,36.48579673446337,327.6,11.137300590495533,10.219866763306696,0
smt_4527,36.48499315628437,327.6,11.1370552980111,10.219528274784148,0
smt_4627,36.4840967525339,327.6,11.136781670492644,10.219150696361735,0
smt_4591,36.48354525966144,327.6,11.13661332712498,10.218918405120336,0
smt_4693,36.4828556845821,327.6,11.136402834121519,10.218627959037228,0
smt_4863,36.48220580975988,327.6,11.136204459633662,10.21835424061948,0
smt_4387,36.48149458834118,327.6,11.135987359078502,10.218054690739784,0
smt_31415,36.48064669271698,327.6,11.135728538680397,10.217697586196524,0
smt_31414,36.479911720615725,327.6,11.135504188222138,10.217388049412252,0
smt_31413,36.47946473753187,327.6,11.135367746499348,10.21719980422247,0
smt_31412,36.47928832551925,327.6,11.135313896678646,10.217125509679192,0
smt_31411,36.479053565341076,327.6,11.135242236062599,10.217026642437835,0
smt_31416,36.47901078192613,327.6,11.135229176412127,10.217008625203762,0
smt_31417,36.47897899357877,327.6,11.135219473009391,10.216995237298416,0
smt_31408,36.4690372093773,327.6,11.132184740347158,10.216455729527917,0
smt_31407,36.46827624941031,327.6,11.131952457084953,10.207901572906719,0
smt_6830,36.46735818888468,327.6,11.131672218829266,10.207516065151475,0
smt_6842,36.465858736938024,327.6,11.131214510664842,10.20688644787995,0
smt_7020,36.46461168157255,327.6,11.130833846633866,10.206362835668878,0
smt_22791,36.46378947534752,327.6,11.130582867932697,10.206017620760404,0
smt_7012,36.46272071998699,327.6,11.130256630032658,10.205568902912939,0
smt_6826,36.46180499420515,327.6,11.129977104458225,10.205184447459681,0
smt_17964,36.46078288862888,327.6,11.12966510641907,10.204755343827868,0
smt_17962,36.44632768541202,327.6,11.12525265122467,10.20347161833023,0
smt_29388,36.44546694733256,327.6,11.124989910663174,10.203109263056252,0
smt_17961,36.444443614425225,327.6,11.124677537980837,10.202678471918816,0
smt_19163,36.44361083494454,327.6,11.124423331790153,10.20232790874161,0
smt_29389,36.442888650096876,327.6,11.124202884644955,10.202023908961216,0
smt_17795,36.441755319995806,327.6,11.123856935285655,10.201546854716339,0
smt_22739,36.44043973134676,327.6,11.123455351448948,10.200993104909143,0
smt_29420,36.43926018216874,327.6,11.123095293702299,10.2004966368719,0
smt_17794,36.4389023890697,327.6,11.122986077249603,10.200346046923785,0
smt_18202,36.43829009004592,327.6,11.122799172785689,10.200088343284207,0
smt_10747,36.43729897499718,327.6,11.122496634614523,10.199671215310374,0
smt_17776,36.436230687330415,327.6,11.122170539478148,10.199221623409612,0
smt_29390,36.43500022270795,327.6,11.12179493977654,10.19870379890096,0
smt_12228,35.580118201572105,327.6,10.860841941871827,10.092710287190299,0
smt_24626,35.57936350681281,327.6,10.860611571066181,10.092402327013257,0
smt_6431,35.57853002569836,327.6,10.860357150701576,10.092062224047625,0
smt_6957,35.57776335140323,327.6,10.860123123138958,10.09174938790548,0
smt_24627,35.5768419679587,327.6,10.859841870561263,10.091373431566085,0
smt_24628,35.576101517933274,327.6,10.85961584796498,10.091071920142047,0
smt_24629,35.575309897365,327.6,10.859374205544873,10.090749849016191,0
smt_24630,35.574243494305925,327.6,10.859048685685568,10.090315992347321,0
smt_6627,35.57344352001592,327.6,10.858804493289352,10.089990537364477,0
smt_6447,35.57214682205619,327.6,10.858408675841327,10.089463012966846,0
smt_6527,35.537790646419936,327.6,10.847921442741129,10.085508468258398,0
smt_24631,35.536993902419916,327.6,10.847678236391916,10.08518377260098,0
smt_1873,35.53612998257569,327.6,10.847414524595752,10.084831708086288,0
smt_24632,35.535298314331506,327.6,10.847160657610349,10.08449279376084,0
smt_24633,35.534370041659294,327.6,10.8468773020938,10.084114520158895,0
smt_24634,35.53342674632427,327.6,10.846589360904844,10.083730133584973,0
smt_6535,35.531003851563405,327.6,10.8458497715395,10.08274286531905,0
smt_6544,35.53009133835374,327.6,10.845571226603704,10.08237105818928,0
smt_19172,35.528966421678795,327.6,10.845227845445297,10.081912717751486,0
smt_19173,35.528205248537766,327.6,10.844995497111649,10.081602589428089,0
smt_6686,35.527507600928516,327.6,10.84478253996597,10.081318348643805,0
smt_19174,35.52544258058034,327.6,10.84415219187434,10.080477030687605,0
smt_24636,35.52421427266246,327.6,10.843777250507467,10.07997662085247,0
smt_24637,35.52317288786772,327.6,10.843459367480989,10.079552374709504,0
smt_24635,35.522028913692786,327.6,10.843110169014892,10.079086347282862,0
smt_24665,35.52085889690548,327.6,10.842753021033417,10.0786097239942,0
smt_6737,35.51972795813989,327.6,10.842407801630003,10.078149032459676,0
smt_22843,35.51863306197869,327.6,10.842073584242579,10.077703034948824,0
smt_19223,35.51779271671174,327.6,10.841817068593326,10.077360734770075,0
smt_6510,35.51682913252387,327.6,10.841522934225843,10.076968243879296,0
smt_24666,35.49567557044804,327.6,10.835065802945067,10.07531912315788,0
smt_6687,35.49483958134383,327.6,10.83481061701582,10.074978926070443,0
smt_22844,35.49414443924218,327.6,10.834598424677099,10.074696050313984,0
smt_19220,35.49321710367218,327.6,10.834315355211286,10.07431869492659,0
smt_6683,35.492373059566646,327.6,10.834057710490429,10.073975239982055,0
smt_24667,35.49115923650793,327.6,10.833687190631236,10.073481328198529,0
smt_6502,35.48966300720742,327.6,10.83323046618053,10.072872523139159,0
smt_19218,35.48910643842145,327.6,10.833060573388721,10.072646064772451,0
smt_29393,35.48804128914964,327.6,10.832735436248363,10.072212681968425,0
smt_24668,35.484979447980784,327.6,10.831800808296942,10.070966955551143,0
smt_6394,35.46986388323914,327.6,10.827186777545524,10.064818493250556,0
smt_24450,35.468981093279005,327.6,10.826917305640722,10.06445947796651,0
smt_24451,35.46804808070598,327.6,10.826632503268002,10.064080046182228,0
smt_24452,35.467195131616585,327.6,10.826372140298101,10.06373318150227,0
smt_24453,35.46629206130556,327.6,10.82609647781,10.063365941913753,0
smt_6993,35.46526152120264,327.6,10.825781905129011,10.062946875467349,0
smt_17113,35.463929835308086,327.6,10.8253754076032,10.062405364083661,0
smt_19165,35.461734571889714,327.6,10.824705302774637,10.061512728303198,0
smt_24454,35.4607337299571,327.6,10.8243997954692,10.061105782362935,0
smt_24455,35.459776380545236,327.6,10.824107564268996,10.060716529633279,0
smt_24456,35.45890922857958,327.6,10.823842865866782,10.060363958244956,0
smt_24457,35.45800524312667,327.6,10.82356692403134,10.059996418606252,0
smt_24458,35.45712456083458,327.6,10.82329809549285,10.059638361025806,0
smt_24459,35.456166683621085,327.6,10.823005703181039,10.059248926866244,0
smt_24505,35.45521462588698,327.6,10.822715087267088,10.058861867461147,0
smt_24506,35.45442410828809,327.6,10.82247378152872,10.058540488846026,0
smt_24507,35.45350267728899,327.6,10.822192514434978,10.058165896012659,0
smt_29445,35.45260964438554,327.6,10.821919915868602,10.057802855674879,0
smt_6650,35.451713441064854,327.6,10.821646349531395,10.057438534232878,0
smt_6653,35.4508421504865,327.6,10.821380387816392,10.057084347584977,0
smt_6140,35.4499538091445,327.6,10.82110922135058,10.056723237200748,0
smt_6420,35.44905212179823,327.6,10.82083398101289,10.056356709395935,0
smt_6426,35.448106658514824,327.6,10.820545378057027,10.055972395505611,0
smt_24508,35.447231592151184,327.6,10.820278263782413,10.055616704240117,0
smt_24509,35.44637318581689,327.6,10.82001623498684,10.055267792010886,0
smt_24510,35.44542083919558,327.6,10.819725530889981,10.054880704671493,0
smt_6389,35.444334217758815,327.6,10.819393839364718,10.054439050411553,0
smt_32671,35.44429939330413,327.6,10.819383209189294,10.0544248965658,0
smt_29446,35.443280612782985,327.6,10.81907222612423,10.054010827672675,0
smt_24511,35.442324404180695,327.6,10.818780343156499,10.053622199722417,0
rbt_1605991,6.676818018760576,61.95,10.777753056917797,5.068242531830194,0
rbt_1607280,6.623040672562897,61.95,10.690945395581755,5.025157530494234,0
sbt_11363,17.416507756129693,163.8,10.632788617905794,4.060938994669551,0
sbt_34393,13.308995526585848,128.1,10.389535930199726,6.8310131749940695,0
rbt_606114,9.04111541477198,90.3,10.012309429426335,4.706755843681321,0
rbt_627337,8.803420003511487,90.3,9.749080845527672,4.585307548354404,0
rbt_1621994,8.628539121683142,90.3,9.555414309726624,4.490723608801103,0
rbt_626678,8.470625449076474,90.3,9.380537595876493,4.4137108855808185,0
rbt_606150,5.73759868162405,61.95,9.2616605030251,4.351093109017323,0
rbt_635543,5.708797572196695,61.95,9.21516960806569,3.756005455597149,0
rbt_1607272,8.256392850545614,90.3,9.143292193295254,4.302662750414723,0
smt_37926,31.660031604234288,346.5,9.137094258076274,8.976736894052085,0
smt_37927,31.659238156570257,346.5,9.136865268851444,8.97651081486156,0
smt_37928,31.6584359996554,346.5,9.136633766134313,8.976282254160742,0
smt_37929,31.657628203357724,346.5,9.136400635889675,8.976052086860136,0
smt_37930,31.656829102193797,346.5,9.136170015063144,8.97582439708726,0
smt_37931,31.656096884460727,346.5,9.135958696814063,8.975615764707891,0
rbt_623007,5.649024114431169,61.95,9.118682993432072,4.284668459142831,0
sbt_22748,19.562583460828233,216.3,9.044190226920126,4.257374660854506,0
sbt_7427,19.56257501625411,216.3,9.044186322817433,4.257370618723299,0
sbt_34383,11.562241758153952,128.1,9.025949850237277,5.318935204248631,0
sbt_34392,11.562238567171956,128.1,9.025947359228693,5.660854194909469,0
sbt_34384,11.547314332638146,128.1,9.014296902918147,4.355648622018021,0
rbt_1630759,6.840721235339272,76.65,8.924620006965782,4.199392656561703,0
rbt_606122,5.518853150386899,61.95,8.908560371891685,4.187731460955564,0
rbt_1229546,8.018698656743947,90.3,8.880064957634492,4.177279604920958,0
rbt_1638606,5.459082033851873,61.95,8.812077536484056,4.1437742769080135,0
rbt_605905,7.818566001840127,90.3,8.658434110564924,4.070731069807921,0
rbt_1607283,7.750517044169039,90.3,8.583075353454086,4.039359167705004,0
rbt_605822,7.433469436444884,90.3,8.231970582995443,3.8771526012149162,0
rbt_1107340,7.425707155423281,90.3,8.223374479981485,3.87218046176479,0
rbt_1607287,7.41440111320954,90.3,8.210853945968484,3.8635525643069233,0
rbt_1626486,7.404699657348508,90.3,8.20011036251219,3.8535970311323937,0
rbt_606132,4.9520001779670855,61.95,7.993543467259218,3.755961929134589,0
rbt_623433,7.170013762797999,90.3,7.940214576741971,3.736987827667804,0
rbt_626698,7.1228907678531765,90.3,7.888029643248258,3.707771203517826,0
rbt_1607252,6.005817351991547,76.65,7.835378150021588,3.6857755841269935,0
rbt_637356,4.69490082439793,61.95,7.5785324041935915,3.563022519661173,0
rbt_631391,6.749287343603663,90.3,7.474293846737168,5.660990106235876,0
rbt_605855,5.5871814305634135,76.65,7.28921256433583,3.430652406267507,0
rbt_1607255,6.50796934760885,90.3,7.207053541095072,3.388421906094106,0
rbt_636933,5.41157772914318,76.65,7.060114454198538,3.3226428107689814,0
rbt_605910,4.25234653466961,61.95,6.8641590551567555,3.2245487445543404,0
rbt_627343,6.15635167139342,90.3,6.817665195341551,3.2037813143782308,0
rbt_1607304,4.146319276128952,61.95,6.693009323856258,3.1436331489914813,0
rbt_1607305,5.855180475433852,90.3,6.484142276227965,3.0492550930316025,0
rbt_1607285,3.9771669087050663,61.95,6.419962725916169,3.014705720080103,0
rbt_3405846,4.822432151559752,76.65,6.291496609993154,2.959641062175393,0
rbt_606103,4.822418410622408,76.65,6.291478683134256,2.9577540865938032,0
rbt_605825,5.59945690908357,90.3,6.200948958010598,2.917065568298332,0
rbt_606109,3.8292155230839535,61.95,6.18113885889258,2.9039825632617506,0
sbt_4580,10.067077218704915,163.8,6.1459567879761385,2.8940618386886996,0
rbt_1631852,5.528786879956781,90.3,6.12268757470297,2.878312644794691,0
rbt_605993,5.490971720397246,90.3,6.080810321591635,2.8579942750596037,0
rbt_630753,5.4684331431435975,90.3,6.055850656858912,2.84919452736453,0
rbt_621999,5.452792213487666,90.3,6.03852958304282,2.8387674116704846,0
sbt_6049,9.861686351601238,163.8,6.020565538218094,2.8349112231293305,0
sbt_28279,12.9529835581829,216.3,5.988434377338373,2.9766601269452457,0
sbt_20214,12.952976112130287,216.3,5.988430934872993,2.9766604228313134,0
smt_6110,19.47998736227977,327.6,5.946272088607987,3.382080955014391,0
rbt_607384,3.6063863853635487,61.95,5.821446949739384,2.735338172286621,0
rbt_1607278,4.450116214581968,76.65,5.8057615323965654,2.7281161452622027,0
smt_24515,19.010694833448827,327.6,5.803020400930655,3.3565834304033455,0
smt_6552,19.01029117037217,327.6,5.802897182653288,3.3564861893782147,0
smt_6549,19.00975779808247,327.6,5.802734370599045,3.3563577574588312,0
smt_23959,19.009292035061005,327.6,5.802592196294568,3.3562456570709807,0
smt_22744,19.008733254286092,327.6,5.802421628292458,3.3561112328131784,0
smt_19175,19.008268500145185,327.6,5.802279761949079,3.3559994811710663,0
smt_19177,19.007739287273015,327.6,5.802118219558307,3.355872288806175,0
smt_19176,19.00718307347377,327.6,5.801948435126302,3.355738674227572,0
smt_19164,19.006940885388243,327.6,5.801874507139268,3.3556805169672046,0
smt_32311,19.006524139125855,327.6,5.801747295215462,3.355580473192921,0
smt_39119,19.006024250544964,327.6,5.801594704073554,3.3554605214336113,0
smt_32312,19.006000780557603,327.6,5.801587539852748,3.3554548912092232,0
smt_32310,19.005981639322634,327.6,5.801581696984931,3.355450299262627,0
smt_32309,19.00551905125871,327.6,5.801440491837212,3.3553393522018915,0
smt_32314,19.005307556347425,327.6,5.801375932950984,3.3552886429874103,0
smt_32313,19.005291494628644,327.6,5.801371030106424,3.355284792419478,0
smt_6802,19.005107332879476,327.6,5.8013148146762745,3.4153309697126555,0
smt_24514,19.004529636160807,327.6,5.801138472576558,3.41519323759943,0
smt_24513,19.003929655088832,327.6,5.800955328171193,3.4150502683661474,0
smt_19166,19.00345884299353,327.6,5.800811612635388,3.4149381329312933,0
smt_6414,19.002999246557728,327.6,5.800671320683066,3.414828714681807,0
smt_18852,19.002534081242484,327.6,5.800529328828596,3.414718016867189,0
smt_6403,19.00201792655602,327.6,5.800371772452998,3.4145952392774976,0
smt_1832,19.001569204890096,327.6,5.800234800027501,3.4144885485710077,0
smt_1831,19.001132029626344,327.6,5.800101352144793,3.4143846448314252,0
smt_1829,19.00027368698801,327.6,5.799839342792432,3.4141807616501434,0
smt_1828,18.999652315250138,327.6,5.7996496688797725,3.4140332654266405,0
rbt_1628760,5.228252683454383,90.3,5.789870081344832,2.720549190637925,0
rbt_3433894,5.21929734366555,90.3,5.779952761534386,2.7182484968044096,0
smt_6350,18.90494621570834,327.6,5.7707406030855735,3.3394043861912177,0
smt_24517,18.90267658517487,327.6,5.770047797672427,3.339093850986495,0
smt_24520,18.90198094012433,327.6,5.769835451808403,3.338926161835525,0
smt_19116,18.901652449723617,327.6,5.769735180013313,3.3388470149015776,0
rbt_1607357,4.39302865029894,76.65,5.7312833011075535,2.6940553245154137,0
rbt_605806,4.795986137484277,90.3,5.311169587468746,2.4962081641697274,0
rbt_622714,4.7191026049779925,90.3,5.226027248037644,2.4578096287456264,0
rbt_1607258,3.949861202554661,76.65,5.153113114878879,2.424030146287857,0
rbt_627328,4.607106133450076,90.3,5.102000147785245,2.402156609857359,0
sbt_5830,8.271068006591978,163.8,5.04949206751647,2.3761946275241668,0
rbt_605815,4.519652280899505,90.3,5.005152027574203,2.3547292525704377,0
rbt_621168,3.8342865141198157,76.65,5.002330742491605,2.3515159919595083,0
rbt_1107330,4.50687195288145,90.3,4.990998840400277,2.3505250651982825,0
rbt_3422597,4.494415920310859,90.3,4.977204784397407,2.341757637797439,0
rbt_621171,3.0787797277760327,61.95,4.969781642899164,2.3349615894804643,0
rbt_606127,3.0560499864550694,61.95,4.933091180718433,2.3177649678460197,0
rbt_1124041,4.432387629901884,90.3,4.908513432892452,2.3096358033520974,0
rbt_635966,3.0391199108997515,61.95,4.905762568038339,2.3051791912310207,0
rbt_605921,3.656510997827649,76.65,4.770399214387018,2.2430638875228537,0
sbt_14007,7.750516750135913,163.8,4.731695207653182,2.226826020114473,0
rbt_627336,4.228035809807895,90.3,4.682210199122807,2.2001572951243866,0
rbt_1627321,4.206958415647516,90.3,4.658868677350516,2.1901095031315476,0
rbt_1607355,4.199676414888204,90.3,4.650804446166339,2.186360036739252,0
rbt_605902,2.876878505576142,61.95,4.643871679703215,2.1824140285093434,0
sbt_35173,5.855180061465001,128.1,4.570788494508197,2.1494745671134505,0
rbt_1607358,3.496943935843957,76.65,4.562223008276526,2.1450373213321883,0
sbt_21952,9.861685463454865,216.3,4.559262812508028,2.146825466792875,0
sbt_20840,7.433469415454096,163.8,4.5381376162723415,2.1374045797167445,0
sbt_6273,7.414400797507881,163.8,4.526496213374774,2.129906981985669,0
sbt_25907,9.766412978443263,216.3,4.515216356191985,1.7454995519059044,0
sbt_21361,9.766406050731712,216.3,4.515213153366488,1.7454997369810012,0
sbt_20771,9.766400519851793,216.3,4.515210596325378,1.7455021210570631,0
smt_6536,12.890897795849558,286.65,4.497086271009788,2.6406635459438252,0
smt_6703,12.890287581134501,286.65,4.496873393034886,2.640515334667788,0
smt_6514,12.889689096301447,286.65,4.496664607117198,2.640370126498226,0
smt_6984,12.889597733056736,286.65,4.496632734364813,2.6403479726899577,0
smt_5854,12.88866803472036,286.65,4.496308402135134,2.6401227429626504,0
smt_5855,12.887971330704978,286.65,4.49606535171986,2.639954200828714,0
smt_5657,12.88740019944203,286.65,4.495866108300028,2.6398161914255827,0
smt_21743,12.886797984860786,286.65,4.495656021231741,2.6396708223609204,0
smt_22741,12.886180828773696,286.65,4.495440721707203,2.639522007933613,0
smt_6098,12.88569044213725,286.65,4.495269646655242,2.639403877947326,0
smt_19120,12.885121682034372,286.65,4.495071230432365,2.639266997919177,0
smt_22740,12.884558659324387,286.65,4.494874815741981,2.6391316357493,0
smt_22738,12.868660119021586,286.65,4.4893284908500215,2.6334203886930205,0
smt_6754,12.86814777372587,286.65,4.489149755355267,2.633296147211318,0
smt_6567,12.867626875892153,286.65,4.4889680362435564,2.6331699466341405,0
smt_6746,12.867108988993989,286.65,4.488787367519271,2.633044590483483,0
smt_6812,12.866599966629533,286.65,4.48860979125398,2.6329214918456967,0
rbt_3405838,4.03274690853409,90.3,4.465943420303533,2.1030069570781538,0
rbt_1107341,2.749016007985393,61.95,4.437475396263749,2.088664760517761,0
rbt_622273,2.5596118748789314,57.75,4.4322283547687125,2.08670921712616,0
rbt_638617,2.741766675132636,61.95,4.425773486896911,2.0830392539190856,0
rbt_605828,3.9845575744677633,90.3,4.412577601846914,2.078144313378875,0
rbt_1607292,3.9054189302371363,90.3,4.324937907239354,2.0341007588506046,0
rbt_1635060,2.6438207417284296,61.95,4.267668671070911,2.0070848074372494,0
rbt_1626490,3.8520559386455338,90.3,4.265842678455741,3.231079212675444,0
rbt_605867,3.849117954783285,90.3,4.26258909721294,2.005172302943137,0
sbt_37156,6.970742231988893,163.8,4.255642388271608,1.9996546786819078,0
sbt_4615,6.889272582257848,163.8,4.205905117373534,1.9819004851883564,0
sbt_3373,6.889271319092702,163.8,4.205904346210441,1.9818996452177098,0
sbt_20793,6.889270158660519,163.8,4.205903637765884,1.9818988803491953,0
sbt_4010,6.889268357987899,163.8,4.205902538454151,1.981897705682521,0
sbt_28804,6.889266721060093,163.8,4.205901539108725,1.9818966500080963,0
rbt_605812,3.7437905877702264,90.3,4.145947494762155,1.9519202547648777,0
rbt_632613,3.7394053187590948,90.3,4.141091161416495,1.9481794343827057,0
rbt_622713,3.72244930580647,90.3,4.122313738434629,1.9372518611043887,0
rbt_606120,2.5419622671744606,61.95,4.1032482117424705,1.9274051304320665,0
sbt_26269,8.803419631394451,216.3,4.070004452794476,1.914254430062038,0
smt_7052,6.612756272296572,163.8,4.037091741328798,2.1631490139752363,0
rbt_1132019,3.633657801937754,90.3,4.0239842767859955,1.892691244008403,0
rbt_605863,3.6200146716857047,90.3,4.008875605410526,1.8863368742720494,0
rbt_634166,3.0311051541906284,76.65,3.9544750870066903,1.8584218635961942,0
rbt_1138614,2.439716619953767,61.95,3.9382027763579774,1.8523445555862226,0
rbt_605803,3.5038741659489183,90.3,3.8802593199877276,1.8243414676102387,0
rbt_605834,3.4841684224757454,90.3,3.8584367912245248,1.8181817587039584,0
rbt_605904,2.3796919820247435,61.95,3.841310705447528,1.8036888379644578,0
smt_29484,6.2898047942092905,163.8,3.8399296667944385,1.902275311221991,0
smt_22951,6.2897911459561024,163.8,3.839921334527535,1.9022669017306655,0
smt_19381,6.288438874777648,163.8,3.839095772147526,1.9014347487059766,0
smt_18804,6.287734802617492,163.8,3.8386659356639146,1.9010023339119335,0
smt_19380,6.286927895240924,163.8,3.838173318217902,1.9005074835795703,0
smt_5349,6.286281353183351,163.8,3.837778603897039,1.9001115384708884,0
smt_18803,6.285624625469653,163.8,3.8373776712268945,1.8997098661404301,0
smt_13454,6.284954004160681,163.8,3.8369682565083516,1.8993002286734975,0
smt_19377,6.284156774919799,163.8,3.8364815475700844,1.898813957564462,0
smt_29411,6.283154416423377,163.8,3.8358696070960785,1.8982036551930983,0
smt_8954,6.282538514891281,163.8,3.835493598834726,1.897829256778138,0
smt_5584,6.2818205120266795,163.8,3.835055257647545,1.8973933743769813,0
rbt_605864,3.460978476769178,90.3,3.8327557882272183,1.8035053920600792,0
rbt_605810,2.9358894522385874,76.65,3.830253688504354,1.8004487499281436,0
rbt_609682,2.9176260275015933,76.65,3.8064266503608524,1.791927685869328,0
rbt_605835,3.405105058484794,90.3,3.770880463438311,1.7768945524037931,0
rbt_622703,2.332982906294611,61.95,3.7659126816700734,2.853109517911095,0
sbt_14006,6.163525856903702,163.8,3.7628362984760075,1.7699082574671614,0
sbt_4118,10.714951197176756,286.65,3.737990998491804,1.3931556282782596,0
smt_25186,6.093911665622646,163.8,3.7203367921994177,2.00866056296055,0
sbt_27416,8.018698525585844,216.3,3.7072115236180507,1.7439127821669451,0
sbt_15213,8.018698470138101,216.3,3.707211497983403,1.743912770183898,0
rbt_606128,2.8237709885992133,76.65,3.683980415654551,1.7314545442398195,0
rbt_607385,3.301992864504154,90.3,3.6566919872692734,1.720728386237779,0
rbt_1607257,3.300388378557052,90.3,3.654915147903712,1.7183527289824745,0
rbt_3405845,3.290473999335114,90.3,3.643935768920392,1.7161984723692878,0
rbt_633056,3.2748843080128207,90.3,3.6266714374449847,1.7053974060485215,0
rbt_606141,3.269923105160106,90.3,3.621177303610305,1.705080985523958,0
rbt_623015,3.263788858317795,90.3,3.614384117738422,2.737933830278502,0
sbt_34389,4.607104862036555,128.1,3.5964909149387623,2.7686265472058604,0
rbt_1606000,3.2007769327995206,90.3,3.544603469323943,1.6668928610332834,0
rbt_605982,3.19640193062154,90.3,3.5397585056716947,1.665909380403831,0
rbt_1629639,3.179863750879818,90.3,3.52144379942394,1.6545590515343562,0
sbt_3952,5.766389359085427,163.8,3.520384224105878,1.6579660645348289,0
sbt_4120,5.7663878617699895,163.8,3.520383309993888,1.6579650919048676,0
sbt_20855,5.766386401232114,163.8,3.5203824183346235,1.6579641508405585,0
sbt_20854,5.766385013312919,163.8,3.5203815710091084,1.657963263299113,0
rbt_635963,2.1744757575656006,61.95,3.5100496490163042,1.648730514259812,0
rbt_626481,3.1394594808375467,90.3,3.4766993143272944,1.6346721175513415,0
rbt_1607306,2.642115995856768,76.65,3.446987600595914,1.6212624378212477,0
rbt_605820,2.63375125614347,76.65,3.4360746981649966,1.617029632410534,0
rbt_3405847,3.0986359655706393,90.3,3.431490548804695,1.6162088703115496,0
rbt_605901,3.0967851895006784,90.3,3.429440962902191,1.6115451339601516,0
rbt_1607289,2.611922333570777,76.65,3.407595999440022,1.601514712366945,0
sbt_34000,7.347842226379176,216.3,3.3970606686912506,1.596862456087269,0
smt_6512,9.697435636023139,286.65,3.3830230720471444,1.9981561191603205,0
smt_6425,9.697025746634205,286.65,3.3828800790630407,1.9980669268465385,0
smt_6930,9.696397790960415,286.65,3.382661012021774,1.9979304904267063,0
sbt_20828,5.51885187154144,163.8,3.3692624368384854,1.5838207190359466,0
rbt_1609690,2.9958109965403112,90.3,3.317620151207432,1.5589273399838088,0
smt_22686,9.494333678782764,286.65,3.312169432681934,2.051385451532077,0
smt_6239,9.4938491880662,286.65,3.312000414465795,2.0512771417756768,0
smt_23961,9.49337623805304,286.65,3.3118354223104975,2.0511715501964676,0
smt_29407,9.49289509465995,286.65,3.3116675718332287,2.0510642696592334,0
smt_6278,9.492464128019037,286.65,3.3115172258918677,2.0509682973855625,0
smt_6630,9.49196160818179,286.65,3.311341918081908,2.0508565346917695,0
smt_19070,9.491456651426889,286.65,3.3111657601349695,2.0507443862289922,0
smt_6639,9.490951949930288,286.65,3.310989691236801,2.050632451213636,0
smt_19117,9.490480799250044,286.65,3.310825326792271,2.0505280989301657,0
smt_21514,9.485387394385112,286.65,3.309048454346804,2.044769203772408,0
smt_5615,9.48490047564027,286.65,3.3088785890948094,2.0446587138194263,0
smt_18742,9.48452124326548,286.65,3.308746291039763,2.0445727585143803,0
smt_6270,9.48392559177734,286.65,3.308538493555674,2.044437925432355,0
smt_5967,9.483462263166912,286.65,3.308376857898801,2.044333193301801,0
smt_5772,9.482915651058276,286.65,3.308186168169641,2.0442098024001365,0
smt_6158,9.482374989700057,286.65,3.307997554404346,2.0440879327457773,0
smt_6263,9.4819067142368,286.65,3.3078341930008026,2.0439825227752624,0
smt_6384,9.481325924188184,286.65,3.3076315800412295,2.0438519706146097,0
smt_22684,9.480757583410682,286.65,3.3074333101031512,2.0437244155529517,0
smt_22685,9.480293819437474,286.65,3.30727152256671,2.04362047705424,0
smt_29447,9.479807554988623,286.65,3.3071018855707743,2.0435116368131916,0
smt_19065,9.47928658020323,286.65,3.3069201396138954,2.0433951878943852,0
smt_24385,9.478697855620096,286.65,3.3067147586325127,2.0432637955837722,0
smt_29448,9.476779130602452,286.65,3.3060453970355668,2.030031583965577,0
smt_6824,9.476305110400611,286.65,3.3058800315369306,2.029921673579005,0
smt_6855,9.475796789798238,286.65,3.3057027000866,2.0298039590615855,0
smt_19062,9.475203106760107,286.65,3.3054955893110445,2.029666672302875,0
smt_7054,9.47473117229766,286.65,3.305330951438221,2.0295576900570467,0
smt_6446,9.474248939046653,286.65,3.3051627207558534,2.0294464675409465,0
smt_39006,9.473754815990818,286.65,3.304990342225996,2.0293326477749565,0
smt_39008,9.473308276986476,286.65,3.304834563748989,2.0292299153080706,0
smt_39007,9.473289457996618,286.65,3.3048279986033906,2.0292255879836376,0
smt_6122,9.472860886805794,286.65,3.3046784883327387,2.029127107099344,0
smt_18741,9.47232000681912,286.65,3.3044897982972685,2.029002977210301,0
smt_5938,9.471818845712855,286.65,3.304314964490792,2.028888120556782,0
smt_5946,9.471240073825449,286.65,3.304113055581877,2.0287556662613597,0
rbt_1625170,2.977028546714628,90.3,3.2968200960294887,1.5493475729186688,0
rbt_605821,4.221342353175217,128.1,3.2953492218385767,1.5487834634336204,0
sbt_34382,4.221053455215926,128.1,3.2951236964995516,1.5486419449228028,0
sbt_35105,4.199676041414422,128.1,3.2784356295194557,1.5412043144996792,0
rbt_605988,2.93374446476405,90.3,3.248886450458527,1.5295636706208187,0
rbt_605804,1.990273156413677,61.95,3.2127088884805115,1.5099939863503602,0
sbt_37537,6.943625854531459,216.3,3.210183011803726,1.290479526358331,0
sbt_37545,6.943616955227258,216.3,3.210178897469837,1.2904802518657885,0
sbt_37546,6.943599748708813,216.3,3.2101709425375926,1.2904792220459325,0
sbt_37539,6.93505548514128,216.3,3.206220751336699,1.8738819795440476,0
sbt_37538,6.935049791879054,216.3,3.206218119222864,1.8738825743154683,0
sbt_6048,5.209866784987711,163.8,3.18062685286185,1.497783948173008,0
rbt_605829,2.8705719785775217,90.3,3.178927993995041,1.4949470420279463,0
sbt_15045,6.840718472596554,216.3,3.16260678344732,1.4881329710097144,0
rbt_1107342,1.9456406261152557,61.95,3.1406628347300334,1.4772202869120805,0
rbt_1607316,2.834493572622364,90.3,3.1389740560602037,2.3792890459881826,0
rbt_3405987,1.9138933530572209,61.95,3.089416227695272,1.4554234115573497,0
sbt_22669,6.676817498380723,216.3,3.086831945622156,1.4515837710705837,0
rbt_1132012,2.779183944594472,90.3,3.0777230837148086,1.4467843305122055,0
rbt_605823,2.7689664911059437,90.3,3.066408074314445,1.4426964611252842,0
rbt_1607268,2.348399514133305,76.65,3.0637958436181405,1.4398940263574715,0
sbt_35588,6.623037168015402,216.3,3.061968177538327,1.4392425004395706,0
smt_29426,6.61349260661642,216.3,3.0575555277930744,1.6384458917365068,0
sbt_21281,4.9519987712625495,163.8,3.0231982730540596,1.420523195470089,0
rbt_1121173,2.6965470441061212,90.3,2.9862093511695695,1.4052679864598734,0
rbt_605989,2.6953113718778496,90.3,2.984840943386323,1.402984985584155,0
rbt_605807,2.683272994795078,90.3,2.9715094073035195,1.3984356322019635,0
rbt_606130,2.2605641247474058,76.65,2.9492030329385592,1.3858669649064013,0
sbt_3491,4.822415126875231,163.8,2.9440873790447073,1.3840751802689526,0
rbt_637399,1.8137452784643229,61.95,2.927756704542894,1.3759176437649545,0
sbt_21191,4.7812481558763045,163.8,2.918954918117402,1.3725641073911892,0
sbt_26310,4.71910219370138,163.8,2.8810147702694624,1.3549460761871266,0
rbt_637705,2.5881552227410514,90.3,2.8661741115626262,2.1714089164570143,0
rbt_1105833,2.5880288893114525,90.3,2.866034207432395,1.3475858580458624,0
rbt_1607276,2.5666074352643293,90.3,2.8423116669593904,1.3356165016916137,0
smt_25183,6.093268829192397,216.3,2.817045228475449,1.5208245394149067,0
...